# RBCS package parameters:
 &RBCS_PARM01
  useRBCptracers=.TRUE.,
  relaxMaskFile(3)='rbcs_mask_surf_2km.bin',
  rbcsForcingPeriod=0.,
 &

# RBCS for pTracers (read this namelist only when ptracers pkg is compiled)
 &RBCS_PARM02
  useRBCptrnum(1)    = .TRUE.,
  tauRelaxPTR(1)     = 18000.,
  relaxPtracerFile(1)='rbcs_relax_surf_2km.bin',
  useRBCptrnum(2)    = .TRUE.,
  tauRelaxPTR(2)     = 86400.,
  relaxPtracerFile(2)='rbcs_relax_surf_2km.bin',
 &
